<?xml version="1.0" encoding="UTF-8"?>

<!-- generated on 2026-06-07 11:09:23 by Eclipse SUMO netconvert Version 1.18.0
<configuration xmlns:xsi="http://www.w3.org/2001/XMLSchema-instance" xsi:noNamespaceSchemaLocation="http://sumo.dlr.de/xsd/netconvertConfiguration.xsd">

    <input>
        <osm-files value="muncgin_bbox.osm.xml"/>
    </input>

    <output>
        <output-file value="muncgin.net.xml"/>
        <output.street-names value="true"/>
        <output.original-names value="true"/>
    </output>

    <projection>
        <proj.utm value="true"/>
    </projection>

    <processing>
        <geometry.remove value="true"/>
        <roundabouts.guess value="true"/>
    </processing>

    <tls_building>
        <tls.discard-simple value="true"/>
        <tls.join value="true"/>
        <tls.guess-signals value="true"/>
    </tls_building>

    <ramp_guessing>
        <ramps.guess value="true"/>
    </ramp_guessing>

    <edge_removal>
        <remove-edges.by-vclass value="tram,rail_urban,rail_electric,bicycle,pedestrian"/>
    </edge_removal>

    <junctions>
        <junctions.join value="true"/>
        <junctions.corner-detail value="5"/>
    </junctions>

</configuration>
-->

<net version="1.16" junctionCornerDetail="5" limitTurnSpeed="5.50" xmlns:xsi="http://www.w3.org/2001/XMLSchema-instance" xsi:noNamespaceSchemaLocation="http://sumo.dlr.de/xsd/net_file.xsd">

    <location netOffset="-690576.12,-5333527.88" convBoundary="0.00,0.00,2957.94,1686.77" origBoundary="11.529401,48.121891,11.611813,48.142943" projParameter="+proj=utm +zone=32 +ellps=WGS84 +datum=WGS84 +units=m +no_defs"/>

    <type id="highway.living_street" priority="2" numLanes="1" speed="2.78" disallow="tram rail_urban rail rail_electric rail_fast ship" oneway="0"/>
    <type id="highway.pedestrian" priority="1" numLanes="1" speed="2.78" allow="pedestrian" oneway="1" width="2.00"/>
    <type id="highway.residential" priority="3" numLanes="1" speed="13.89" disallow="tram rail_urban rail rail_electric rail_fast ship" oneway="0"/>
    <type id="highway.secondary" priority="11" numLanes="1" speed="27.78" disallow="tram rail_urban rail rail_electric rail_fast ship" oneway="0"/>
    <type id="highway.secondary_link" priority="6" numLanes="1" speed="22.22" disallow="tram rail_urban rail rail_electric rail_fast ship" oneway="0"/>
    <type id="highway.service" priority="1" numLanes="1" speed="5.56" allow="pedestrian delivery bicycle" oneway="0"/>
    <type id="railway.rail" priority="20" numLanes="1" speed="44.44" allow="rail" oneway="1"/>

    <edge id=":10568232905_0" function="internal">
        <lane id=":10568232905_0_0" index="0" allow="pedestrian delivery bicycle" speed="3.65" length="4.67" shape="935.34,806.22 935.67,807.62 935.42,808.48 934.58,808.80 933.16,808.57"/>
    </edge>
    <edge id=":10568232908_0" function="internal">
        <lane id=":10568232908_0_0" index="0" allow="pedestrian delivery bicycle" speed="5.21" length="5.21" shape="922.01,798.16 920.81,797.30 919.63,796.98 918.50,797.20 917.40,797.98"/>
    </edge>
    <edge id=":10568232908_1" function="internal">
        <lane id=":10568232908_1_0" index="0" allow="pedestrian delivery bicycle" speed="3.65" length="4.67" shape="922.01,798.16 921.68,796.76 921.94,795.90 922.77,795.59 924.20,795.82"/>
    </edge>
    <edge id=":10568232908_2" function="internal">
        <lane id=":10568232908_2_0" index="0" allow="pedestrian delivery bicycle" speed="4.99" length="5.06" shape="924.16,791.44 923.30,792.54 923.02,793.64 923.32,794.73 924.20,795.82"/>
    </edge>
    <edge id=":10568232908_3" function="internal">
        <lane id=":10568232908_3_0" index="0" disallow="tram rail_urban rail rail_electric rail_fast ship" speed="13.89" length="9.41" shape="924.16,791.44 917.40,797.98"/>
        <lane id=":10568232908_3_1" index="1" disallow="tram rail_urban rail rail_electric rail_fast ship" speed="13.89" length="9.41" shape="921.93,789.14 915.17,795.68"/>
    </edge>
    <edge id=":1072765177_0" function="internal">
        <lane id=":1072765177_0_0" index="0" disallow="pedestrian tram rail_urban rail rail_electric rail_fast ship" speed="13.89" length="6.91" shape="1604.11,1066.54 1598.97,1061.77"/>
        <lane id=":1072765177_0_1" index="1" disallow="pedestrian tram rail_urban rail rail_electric rail_fast ship" speed="13.89" length="6.91" shape="1606.29,1064.20 1601.22,1059.50"/>
        <lane id=":1072765177_0_2" index="2" disallow="pedestrian tram rail_urban rail rail_electric rail_fast ship" speed="13.89" length="6.91" shape="1608.47,1061.86 1603.48,1057.23"/>
    </edge>
    <edge id=":1072765177_3" function="internal">
        <lane id=":1072765177_3_0" index="0" disallow="pedestrian tram rail_urban rail rail_electric rail_fast ship" speed="6.87" length="6.62" shape="1608.52,1057.78 1605.83,1059.04 1603.72,1059.75 1602.19,1059.90 1601.22,1059.50"/>
        <lane id=":1072765177_3_1" index="1" disallow="pedestrian tram rail_urban rail rail_electric rail_fast ship" speed="5.87" length="6.62" shape="1608.52,1057.78 1607.09,1058.32 1605.78,1058.41 1604.57,1058.05 1603.48,1057.23"/>
    </edge>
    <edge id=":1072765306_0" function="internal">
        <lane id=":1072765306_0_0" index="0" disallow="pedestrian tram rail_urban rail rail_electric rail_fast ship" speed="13.89" length="8.03" shape="1587.74,894.13 1586.87,896.26 1586.65,897.86 1586.47,899.49 1585.72,901.68"/>
        <lane id=":1072765306_0_1" index="1" disallow="pedestrian tram rail_urban rail rail_electric rail_fast ship" speed="13.89" length="8.03" shape="1584.93,892.60 1584.03,894.78 1583.79,896.42 1583.59,898.08 1582.82,900.32"/>
        <lane id=":1072765306_0_2" index="2" disallow="pedestrian tram rail_urban rail rail_electric rail_fast ship" speed="13.89" length="8.03" shape="1584.93,892.60 1583.57,894.58 1582.34,895.74 1581.15,896.93 1579.92,898.97"/>
    </edge>
    <edge id=":11174948217_0" function="internal">
        <lane id=":11174948217_0_0" index="0" allow="pedestrian delivery bicycle" speed="3.65" length="4.67" shape="770.79,1208.49 770.43,1207.09 770.66,1206.23 771.49,1205.90 772.92,1206.10"/>
    </edge>
    <edge id=":11215768213_0" function="internal">
        <lane id=":11215768213_0_0" index="0" allow="pedestrian delivery bicycle" speed="5.30" length="5.36" shape="1244.47,846.65 1243.16,846.36 1242.00,846.61 1241.01,847.40 1240.17,848.72"/>
    </edge>
    <edge id=":11215768213_1" function="internal">
        <lane id=":11215768213_1_0" index="0" disallow="tram rail_urban rail rail_electric rail_fast ship" speed="13.89" length="9.41" shape="1244.47,846.65 1235.73,843.17"/>
    </edge>
    <edge id=":11215768213_2" function="internal">
        <lane id=":11215768213_2_0" index="0" disallow="tram rail_urban rail rail_electric rail_fast ship" speed="13.89" length="9.42" shape="1236.91,840.20 1245.66,843.68"/>
    </edge>
    <edge id=":11215768213_3" function="internal">
        <lane id=":11215768213_3_0" index="0" allow="pedestrian delivery bicycle" speed="6.83" length="3.30" shape="1236.91,840.20 1239.42,841.65 1239.66,841.97"/>
    </edge>
    <edge id=":11215768213_7" function="internal">
        <lane id=":11215768213_7_0" index="0" allow="pedestrian delivery bicycle" speed="6.83" length="7.27" shape="1239.66,841.97 1240.80,843.55 1241.05,845.91 1240.17,848.72"/>
    </edge>
    <edge id=":11215768213_4" function="internal">
        <lane id=":11215768213_4_0" index="0" allow="pedestrian delivery bicycle" speed="4.98" length="5.11" shape="1237.31,847.28 1237.74,845.93 1237.61,844.79 1236.94,843.87 1235.73,843.17"/>
    </edge>
    <edge id=":11215768213_5" function="internal">
        <lane id=":11215768213_5_0" index="0" allow="pedestrian delivery bicycle" speed="7.04" length="10.22" shape="1237.31,847.28 1238.87,844.87 1240.79,843.47 1243.05,843.07 1245.66,843.68"/>
    </edge>
    <edge id=":11215768213_6" function="internal">
        <lane id=":11215768213_6_0" index="0" allow="pedestrian delivery bicycle" speed="3.65" length="4.67" shape="1237.31,847.28 1238.57,846.57 1239.46,846.57 1240.00,847.29 1240.17,848.72"/>
    </edge>
    <edge id=":11215768215_0" function="internal">
        <lane id=":11215768215_0_0" index="0" allow="pedestrian delivery bicycle" speed="3.65" length="4.67" shape="1230.69,868.68 1229.45,869.42 1228.56,869.43 1228.01,868.73 1227.80,867.30"/>
    </edge>
    <edge id=":11753140116_0" function="internal">
        <lane id=":11753140116_0_0" index="0" disallow="tram rail_urban rail rail_electric rail_fast ship" speed="3.65" length="4.67" shape="1143.93,1383.08 1144.46,1381.73 1145.15,1381.17 1146.02,1381.39 1147.06,1382.40"/>
    </edge>
    <edge id=":1175412936_0" function="internal">
        <lane id=":1175412936_0_0" index="0" allow="rail rail_electric rail_fast" speed="16.67" length="0.10" shape="2810.22,25.04 2810.22,25.04"/>
    </edge>
    <edge id=":11922467843_0" function="internal">
        <lane id=":11922467843_0_0" index="0" disallow="pedestrian tram rail_urban rail rail_electric rail_fast ship" speed="13.89" length="8.21" shape="1680.08,1290.14 1679.61,1287.78 1678.92,1286.23 1678.22,1284.69 1677.75,1282.33"/>
        <lane id=":11922467843_0_1" index="1" disallow="pedestrian tram rail_urban rail rail_electric rail_fast ship" speed="13.89" length="8.21" shape="1683.27,1289.85 1682.80,1287.48 1682.10,1285.94 1681.41,1284.39 1680.93,1282.03"/>
        <lane id=":11922467843_0_2" index="2" disallow="pedestrian tram rail_urban rail rail_electric rail_fast ship" speed="13.89" length="8.21" shape="1683.27,1289.85 1683.29,1287.44 1683.69,1285.79 1684.09,1284.14 1684.12,1281.73"/>
    </edge>
    <edge id=":11922467844_0" function="internal">
        <lane id=":11922467844_0_0" index="0" disallow="pedestrian tram rail_urban rail rail_electric rail_fast ship" speed="13.89" length="8.21" shape="1686.98,1343.88 1686.40,1341.55 1685.63,1340.04 1684.86,1338.53 1684.27,1336.19"/>
        <lane id=":11922467844_0_1" index="1" disallow="pedestrian tram rail_urban rail rail_electric rail_fast ship" speed="13.89" length="8.21" shape="1690.15,1343.44 1689.57,1341.10 1688.80,1339.59 1688.03,1338.08 1687.44,1335.74"/>
        <lane id=":11922467844_0_2" index="2" disallow="pedestrian tram rail_urban rail rail_electric rail_fast ship" speed="13.89" length="8.21" shape="1690.15,1343.44 1690.06,1341.02 1690.38,1339.36 1690.70,1337.69 1690.61,1335.28"/>
    </edge>
    <edge id=":11922487171_0" function="internal">
        <lane id=":11922487171_0_0" index="0" disallow="pedestrian tram rail_urban rail rail_electric rail_fast ship" speed="13.89" length="8.03" shape="1702.52,1469.44 1702.51,1467.37 1702.41,1465.95 1702.18,1464.55 1701.79,1462.51"/>
        <lane id=":11922487171_0_1" index="1" disallow="pedestrian tram rail_urban rail rail_electric rail_fast ship" speed="13.89" length="8.03" shape="1705.72,1469.48 1705.71,1467.22 1705.61,1465.68 1705.36,1464.15 1704.94,1461.92"/>
        <lane id=":11922487171_0_2" index="2" disallow="pedestrian tram rail_urban rail rail_electric rail_fast ship" speed="13.89" length="8.03" shape="1708.92,1469.52 1708.92,1467.08 1708.80,1465.41 1708.54,1463.74 1708.08,1461.34"/>
        <lane id=":11922487171_0_3" index="3" disallow="pedestrian tram rail_urban rail rail_electric rail_fast ship" speed="13.89" length="8.03" shape="1708.92,1469.52 1709.42,1466.87 1710.41,1465.11 1711.23,1463.37 1711.23,1460.75"/>
    </edge>
    <edge id=":11922487180_0" function="internal">
        <lane id=":11922487180_0_0" index="0" disallow="pedestrian tram rail_urban rail rail_electric rail_fast ship" speed="13.89" length="7.95" shape="1710.88,1408.36 1711.50,1410.54 1712.31,1411.92 1713.18,1413.28 1713.96,1415.42"/>
        <lane id=":11922487180_0_1" index="1" disallow="pedestrian tram rail_urban rail rail_electric rail_fast ship" speed="13.89" length="7.95" shape="1707.72,1408.89 1708.35,1411.14 1709.18,1412.56 1710.06,1413.97 1710.85,1416.18"/>
        <lane id=":11922487180_0_2" index="2" disallow="pedestrian tram rail_urban rail rail_electric rail_fast ship" speed="13.89" length="7.95" shape="1707.72,1408.89 1707.87,1411.27 1707.62,1412.94 1707.43,1414.59 1707.74,1416.94"/>
    </edge>
    <edge id=":1204406364_0" function="internal">
        <lane id=":1204406364_0_0" index="0" disallow="tram rail_urban rail rail_electric rail_fast ship" speed="6.58" length="8.46" shape="822.79,1527.91 824.08,1529.90 825.66,1531.10 827.53,1531.50 829.68,1531.09"/>
    </edge>
    <edge id=":1204406364_1" function="internal">
        <lane id=":1204406364_1_0" index="0" disallow="tram rail_urban rail rail_electric rail_fast ship" speed="8.33" length="10.13" shape="820.12,1534.42 829.68,1531.09"/>
    </edge>
    <edge id=":12110571303_0" function="internal">
        <lane id=":12110571303_0_0" index="0" allow="pedestrian delivery bicycle" speed="5.29" length="5.30" shape="695.25,1236.76 695.77,1238.20 696.56,1239.17 697.63,1239.66 698.97,1239.67"/>
    </edge>
    <edge id=":12110571303_1" function="internal">
        <lane id=":12110571303_1_0" index="0" allow="pedestrian delivery bicycle" speed="3.65" length="4.67" shape="695.25,1236.76 694.74,1238.11 694.05,1238.67 693.18,1238.46 692.13,1237.47"/>
    </edge>
    <edge id=":12110571303_2" function="internal">
        <lane id=":12110571303_2_0" index="0" allow="pedestrian delivery bicycle" speed="4.97" length="5.09" shape="689.66,1241.09 691.01,1240.68 691.87,1239.94 692.24,1238.87 692.13,1237.47"/>
    </edge>
    <edge id=":12110571303_3" function="internal">
        <lane id=":12110571303_3_0" index="0" disallow="tram rail_urban rail rail_electric rail_fast ship" speed="8.33" length="9.42" shape="689.66,1241.09 698.97,1239.67"/>
    </edge>
    <edge id=":12110571305_0" function="internal">
        <lane id=":12110571305_0_0" index="0" allow="pedestrian delivery bicycle" speed="3.65" length="4.67" shape="680.38,1215.15 680.48,1213.71 680.97,1212.96 681.86,1212.91 683.15,1213.55"/>
    </edge>
    <edge id=":12518577687_0" function="internal">
        <lane id=":12518577687_0_0" index="0" disallow="pedestrian tram rail_urban rail rail_electric rail_fast ship" speed="3.65" length="4.67" shape="1820.76,817.07 1820.68,815.63 1821.07,814.83 1821.95,814.66 1823.31,815.13"/>
    </edge>
    <edge id=":1313365829_0" function="internal">
        <lane id=":1313365829_0_0" index="0" disallow="tram rail_urban rail rail_electric rail_fast ship" speed="13.89" length="14.53" shape="885.26,1071.06 873.65,1062.32"/>
    </edge>
    <edge id=":1313365829_1" function="internal">
        <lane id=":1313365829_1_0" index="0" disallow="tram rail_urban rail rail_electric rail_fast ship" speed="7.84" length="4.22" shape="885.26,1071.06 882.38,1068.21 882.32,1068.05"/>
    </edge>
    <edge id=":1313365829_2" function="internal">
        <lane id=":1313365829_2_0" index="0" disallow="tram rail_urban rail rail_electric rail_fast ship" speed="3.65" length="1.44" shape="885.26,1071.06 884.77,1069.70"/>
    </edge>
    <edge id=":1313365829_12" function="internal">
        <lane id=":1313365829_12_0" index="0" disallow="tram rail_urban rail rail_electric rail_fast ship" speed="7.84" length="10.34" shape="882.32,1068.05 881.21,1065.19 881.74,1062.00 883.97,1058.64"/>
    </edge>
    <edge id=":1313365829_13" function="internal">
        <lane id=":1313365829_13_0" index="0" disallow="tram rail_urban rail rail_electric rail_fast ship" speed="3.65" length="3.23" shape="884.77,1069.70 884.92,1068.82 885.72,1068.41 887.16,1068.48"/>
    </edge>
    <edge id=":1313365829_3" function="internal">
        <lane id=":1313365829_3_0" index="0" disallow="tram rail_urban rail rail_electric rail_fast ship" speed="6.31" length="9.04" shape="886.36,1060.77 884.97,1062.86 884.64,1064.84 885.37,1066.71 887.16,1068.48"/>
    </edge>
    <edge id=":1313365829_4" function="internal">
        <lane id=":1313365829_4_0" index="0" disallow="tram rail_urban rail rail_electric rail_fast ship" speed="8.26" length="14.37" shape="886.36,1060.77 883.31,1063.38 880.18,1064.51 876.96,1064.16 873.65,1062.32"/>
    </edge>
    <edge id=":1313365829_5" function="internal">
        <lane id=":1313365829_5_0" index="0" disallow="tram rail_urban rail rail_electric rail_fast ship" speed="3.65" length="4.67" shape="886.36,1060.77 884.96,1061.13 884.10,1060.90 883.77,1060.06 883.97,1058.64"/>
    </edge>
    <edge id=":1313365829_6" function="internal">
        <lane id=":1313365829_6_0" index="0" disallow="tram rail_urban rail rail_electric rail_fast ship" speed="6.82" length="9.47" shape="875.61,1059.78 877.76,1060.97 879.87,1061.17 881.94,1060.39 883.97,1058.64"/>
    </edge>
    <edge id=":1313365829_7" function="internal">
        <lane id=":1313365829_7_0" index="0" disallow="tram rail_urban rail rail_electric rail_fast ship" speed="13.89" length="14.46" shape="875.61,1059.78 887.16,1068.48"/>
    </edge>
    <edge id=":1313365829_8" function="internal">
        <lane id=":1313365829_8_0" index="0" disallow="tram rail_urban rail rail_electric rail_fast ship" speed="3.65" length="1.44" shape="875.61,1059.78 876.07,1061.15"/>
    </edge>
    <edge id=":1313365829_14" function="internal">
        <lane id=":1313365829_14_0" index="0" disallow="tram rail_urban rail rail_electric rail_fast ship" speed="3.65" length="3.23" shape="876.07,1061.15 875.90,1062.03 875.09,1062.42 873.65,1062.32"/>
    </edge>
    <edge id=":1313365829_9" function="internal">
        <lane id=":1313365829_9_0" index="0" disallow="tram rail_urban rail rail_electric rail_fast ship" speed="6.38" length="9.70" shape="874.67,1070.43 876.22,1068.42 876.57,1066.40 875.71,1064.36 873.65,1062.32"/>
    </edge>
    <edge id=":1313365829_10" function="internal">
        <lane id=":1313365829_10_0" index="0" disallow="tram rail_urban rail rail_electric rail_fast ship" speed="8.33" length="15.04" shape="874.67,1070.43 877.20,1067.68 879.44,1064.65 881.62,1061.57 883.97,1058.64"/>
    </edge>
    <edge id=":1313365829_11" function="internal">
        <lane id=":1313365829_11_0" index="0" disallow="tram rail_urban rail rail_electric rail_fast ship" speed="8.49" length="13.87" shape="874.67,1070.43 877.96,1067.97 881.14,1066.82 884.20,1066.99 887.16,1068.48"/>
    </edge>
    <edge id=":13367414920_0" function="internal">
        <lane id=":13367414920_0_0" index="0" allow="pedestrian delivery bicycle" speed="3.65" length="4.67" shape="1193.02,1560.74 1192.20,1559.55 1192.13,1558.66 1192.79,1558.06 1194.21,1557.77"/>
    </edge>
    <edge id=":1360387423_0" function="internal">
        <lane id=":1360387423_0_0" index="0" allow="pedestrian delivery bicycle" speed="6.95" length="0.30" shape="716.80,1181.92 716.59,1181.70"/>
    </edge>
    <edge id=":1360387423_1" function="internal">
        <lane id=":1360387423_1_0" index="0" disallow="tram rail_urban rail rail_electric rail_fast ship" speed="3.65" length="2.34" shape="716.80,1181.92 716.54,1180.50 716.84,1179.65"/>
    </edge>
    <edge id=":1360387423_3" function="internal">
        <lane id=":1360387423_3_0" index="0" disallow="tram rail_urban rail rail_electric rail_fast ship" speed="3.65" length="2.34" shape="716.84,1179.65 717.70,1179.39 719.11,1179.70"/>
    </edge>
    <edge id=":1360387423_2" function="internal">
        <lane id=":1360387423_2_0" index="0" allow="pedestrian delivery bicycle" speed="6.95" length="0.30" shape="718.90,1179.48 719.11,1179.70"/>
    </edge>
    <edge id=":13652871299_0" function="internal">
        <lane id=":13652871299_0_0" index="0" allow="rail rail_electric rail_fast" speed="16.67" length="0.30" shape="362.95,1415.84 362.67,1415.96"/>
    </edge>
    <edge id=":1368309490_0" function="internal">
        <lane id=":1368309490_0_0" index="0" disallow="pedestrian tram rail_urban rail rail_electric rail_fast ship" speed="11.11" length="7.96" shape="1485.18,993.85 1485.72,991.29 1485.51,989.30 1485.56,987.47 1486.86,985.43"/>
        <lane id=":1368309490_0_1" index="1" disallow="pedestrian tram rail_urban rail rail_electric rail_fast ship" speed="11.11" length="7.96" shape="1485.18,993.85 1485.98,991.92 1486.62,990.61 1487.46,989.45 1488.88,987.93"/>
    </edge>
    <edge id=":13702388585_0" function="internal">
        <lane id=":13702388585_0_0" index="0" allow="rail rail_electric rail_fast" speed="16.67" length="0.30" shape="2440.50,323.43 2440.30,323.66"/>
    </edge>
    <edge id=":13702388586_0" function="internal">
        <lane id=":13702388586_0_0" index="0" allow="rail rail_electric rail_fast" speed="16.67" length="0.30" shape="2432.10,314.20 2432.33,314.00"/>
    </edge>
    <edge id=":13702388587_0" function="internal">
        <lane id=":13702388587_0_0" index="0" allow="rail rail_electric rail_fast" speed="16.67" length="0.30" shape="2269.33,462.41 2269.55,462.20"/>
    </edge>
    <edge id=":1391340089_0" function="internal">
        <lane id=":1391340089_0_0" index="0" disallow="tram rail_urban rail rail_electric rail_fast ship" speed="8.33" length="14.48" shape="705.19,1491.93 702.87,1490.86 699.75,1490.48 695.82,1490.79 691.09,1491.80"/>
    </edge>
    <edge id=":1391340089_1" function="internal">
        <lane id=":1391340089_1_0" index="0" disallow="tram rail_urban rail rail_electric rail_fast ship" speed="8.33" length="16.37" shape="705.19,1491.93 701.76,1489.77 698.00,1487.55 694.69,1485.01 692.60,1481.86"/>
    </edge>
    <edge id=":1391340089_2" function="internal">
        <lane id=":1391340089_2_0" index="0" disallow="tram rail_urban rail rail_electric rail_fast ship" speed="5.66" length="9.26" shape="705.19,1491.93 703.19,1489.99 702.67,1488.23 703.61,1486.64 706.02,1485.25"/>
    </edge>
    <edge id=":1391340089_3" function="internal">
        <lane id=":1391340089_3_0" index="0" disallow="tram rail_urban rail rail_electric rail_fast ship" speed="7.82" length="14.17" shape="695.19,1479.52 697.01,1483.24 699.42,1485.43 702.43,1486.10 706.02,1485.25"/>
    </edge>
    <edge id=":1391340089_4" function="internal">
        <lane id=":1391340089_4_0" index="0" disallow="tram rail_urban rail rail_electric rail_fast ship" speed="7.99" length="14.88" shape="695.19,1479.52 696.24,1484.14 695.91,1487.73 694.19,1490.28 691.09,1491.80"/>
    </edge>
    <edge id=":1391340089_5" function="internal">
        <lane id=":1391340089_5_0" index="0" disallow="tram rail_urban rail rail_electric rail_fast ship" speed="3.76" length="5.09" shape="695.19,1479.52 695.42,1481.07 695.07,1481.98 694.13,1482.24 692.60,1481.86"/>
    </edge>
    <edge id=":1391340089_6" function="internal">
        <lane id=":1391340089_6_0" index="0" disallow="tram rail_urban rail rail_electric rail_fast ship" speed="6.13" length="8.32" shape="690.27,1488.71 692.02,1487.86 692.99,1486.43 693.19,1484.43 692.60,1481.86"/>
    </edge>
    <edge id=":1391340089_7" function="internal">
        <lane id=":1391340089_7_0" index="0" disallow="tram rail_urban rail rail_electric rail_fast ship" speed="8.33" length="16.15" shape="690.27,1488.71 694.12,1487.90 698.23,1487.22 702.29,1486.42 706.02,1485.25"/>
    </edge>
    <edge id=":1391340089_8" function="internal">
        <lane id=":1391340089_8_0" index="0" disallow="tram rail_urban rail rail_electric rail_fast ship" speed="3.65" length="4.67" shape="690.27,1488.71 691.64,1489.18 692.23,1489.85 692.04,1490.72 691.09,1491.80"/>
    </edge>
    <edge id=":1469133526_0" function="internal">
        <lane id=":1469133526_0_0" index="0" allow="rail rail_electric rail_fast" speed="16.67" length="0.27" shape="1539.93,984.68 1539.73,984.85"/>
    </edge>
    <edge id=":1469133528_0" function="internal">
        <lane id=":1469133528_0_0" index="0" allow="rail rail_electric rail_fast" speed="16.67" length="16.65" shape="1506.68,1012.39 1493.24,1022.22"/>
    </edge>
    <edge id=":1469133528_1" function="internal">
        <lane id=":1469133528_1_0" index="0" allow="rail rail_electric rail_fast" speed="13.89" length="16.65" shape="1504.25,1009.82 1501.77,1012.99 1499.12,1016.44 1496.28,1019.67 1493.24,1022.22"/>
    </edge>
    <edge id=":1531495364_0" function="internal">
        <lane id=":1531495364_0_0" index="0" allow="rail rail_electric rail_fast" speed="16.67" length="0.10" shape="405.30,1397.62 405.30,1397.62"/>
    </edge>
    <edge id=":1574861453_0" function="internal">
        <lane id=":1574861453_0_0" index="0" disallow="pedestrian tram rail_urban rail rail_electric rail_fast ship" speed="13.89" length="8.17" shape="1667.70,1160.61 1668.61,1162.86 1669.57,1164.26 1670.51,1165.67 1671.35,1167.94"/>
        <lane id=":1574861453_0_1" index="1" disallow="pedestrian tram rail_urban rail rail_electric rail_fast ship" speed="13.89" length="8.17" shape="1667.70,1160.61 1668.12,1162.98 1668.02,1164.66 1667.90,1166.35 1668.25,1168.73"/>
        <lane id=":1574861453_0_2" index="2" disallow="pedestrian tram rail_urban rail rail_electric rail_fast ship" speed="13.89" length="8.17" shape="1664.63,1161.50 1665.04,1163.83 1664.93,1165.50 1664.80,1167.17 1665.15,1169.52"/>
    </edge>
    <edge id=":1576536102_0" function="internal">
        <lane id=":1576536102_0_0" index="0" disallow="tram rail_urban rail rail_electric rail_fast ship" speed="8.33" length="9.44" shape="713.92,802.09 711.75,792.91"/>
    </edge>
    <edge id=":1576536102_1" function="internal">
        <lane id=":1576536102_1_0" index="0" allow="pedestrian delivery bicycle" speed="5.97" length="8.08" shape="713.92,802.09 713.49,799.29 713.70,797.23 714.55,795.91 716.04,795.32"/>
    </edge>
    <edge id=":1576536102_2" function="internal">
        <lane id=":1576536102_2_0" index="0" allow="pedestrian delivery bicycle" speed="6.40" length="7.96" shape="716.43,798.49 714.91,798.29 713.63,797.30 712.57,795.50 711.75,792.91"/>
    </edge>
    <edge id=":1576536102_3" function="internal">
        <lane id=":1576536102_3_0" index="0" allow="pedestrian delivery bicycle" speed="3.65" length="4.67" shape="716.43,798.49 715.14,797.84 714.65,797.10 714.95,796.26 716.04,795.32"/>
    </edge>
    <edge id=":1576536106_0" function="internal">
        <lane id=":1576536106_0_0" index="0" allow="pedestrian delivery bicycle" speed="3.65" length="4.67" shape="771.27,788.56 772.56,789.21 773.05,789.96 772.75,790.80 771.66,791.74"/>
    </edge>
    <edge id=":1576653309_0" function="internal">
        <lane id=":1576653309_0_0" index="0" allow="pedestrian delivery bicycle" speed="4.98" length="5.07" shape="944.81,1027.10 944.34,1025.78 943.56,1024.96 942.48,1024.63 941.09,1024.79"/>
    </edge>
    <edge id=":1576653309_1" function="internal">
        <lane id=":1576653309_1_0" index="0" allow="pedestrian delivery bicycle" speed="6.84" length="10.42" shape="944.81,1027.10 944.64,1024.22 945.44,1022.02 947.21,1020.50 949.94,1019.65"/>
    </edge>
    <edge id=":1576653309_2" function="internal">
        <lane id=":1576653309_2_0" index="0" allow="pedestrian delivery bicycle" speed="3.65" length="4.67" shape="944.81,1027.10 945.36,1025.77 946.06,1025.22 946.93,1025.45 947.95,1026.46"/>
    </edge>
    <edge id=":1576653309_3" function="internal">
        <lane id=":1576653309_3_0" index="0" allow="pedestrian delivery bicycle" speed="5.01" length="5.09" shape="950.44,1022.81 949.11,1023.23 948.25,1023.97 947.86,1025.05 947.95,1026.46"/>
    </edge>
    <edge id=":1576653309_4" function="internal">
        <lane id=":1576653309_4_0" index="0" disallow="tram rail_urban rail rail_electric rail_fast ship" speed="8.33" length="9.57" shape="950.44,1022.81 947.64,1023.26 945.73,1023.62 943.83,1024.07 941.09,1024.79"/>
    </edge>
    <edge id=":1576653309_5" function="internal">
        <lane id=":1576653309_5_0" index="0" disallow="tram rail_urban rail rail_electric rail_fast ship" speed="8.33" length="9.89" shape="940.27,1021.69 943.11,1020.95 945.06,1020.49 947.04,1020.12 949.94,1019.65"/>
    </edge>
    <edge id=":1576653309_6" function="internal">
        <lane id=":1576653309_6_0" index="0" allow="pedestrian delivery bicycle" speed="6.82" length="3.34" shape="940.27,1021.69 943.14,1021.36 943.57,1021.49"/>
    </edge>
    <edge id=":1576653309_7" function="internal">
        <lane id=":1576653309_7_0" index="0" allow="pedestrian delivery bicycle" speed="6.82" length="7.11" shape="943.57,1021.49 945.37,1022.04 946.98,1023.75 947.95,1026.46"/>
    </edge>
    <edge id=":1576653311_0" function="internal">
        <lane id=":1576653311_0_0" index="0" allow="pedestrian delivery bicycle" speed="3.65" length="4.67" shape="955.31,1061.20 954.78,1062.54 954.08,1063.10 953.22,1062.87 952.18,1061.86"/>
    </edge>
    <edge id=":1576683882_0" function="internal">
        <lane id=":1576683882_0_0" index="0" allow="pedestrian delivery bicycle" speed="3.65" length="4.67" shape="966.46,1057.07 965.64,1058.26 964.83,1058.64 964.04,1058.23 963.26,1057.01"/>
    </edge>
    <edge id=":1576779560_0" function="internal">
        <lane id=":1576779560_0_0" index="0" allow="pedestrian delivery bicycle" speed="5.56" length="5.70" shape="984.24,1103.16 985.44,1108.73"/>
    </edge>
    <edge id=":1576779560_1" function="internal">
        <lane id=":1576779560_1_0" index="0" allow="pedestrian delivery bicycle" speed="3.65" length="4.67" shape="982.92,1106.76 984.29,1106.31 985.17,1106.49 985.55,1107.30 985.44,1108.73"/>
    </edge>
    <edge id=":18220767_0" function="internal">
        <lane id=":18220767_0_0" index="0" disallow="tram rail_urban rail rail_electric rail_fast ship" speed="8.33" length="11.06" shape="1290.79,818.14 1282.88,810.41"/>
    </edge>
    <edge id=":18220767_1" function="internal">
        <lane id=":18220767_1_0" index="0" disallow="tram rail_urban rail rail_electric rail_fast ship" speed="6.51" length="8.98" shape="1290.76,810.18 1288.83,811.70 1286.88,812.25 1284.89,811.82 1282.88,810.41"/>
    </edge>
    <edge id=":18290985_0" function="internal">