<?xml version="1.0" encoding="UTF-8"?>

<!-- generated on 2026-06-07 11:10:15.979623 by randomTrips.py UNKNOWN
<configuration>
    <net-file value="scenario/mobility/muncgin_demo/muncgin.net.xml"/>
    <output-trip-file value="scenario/mobility/muncgin_demo/vehicles.trips.xml"/>
    <route-file value="scenario/mobility/muncgin_demo/vehicles.rou.xml"/>
    <prefix value="ue"/>
    <vehicle-class value="passenger"/>
    <validate value="True"/>
    <end value="20.0"/>
    <period value="1.0"/>
</configuration>
-->

<!-- generated on 2026-06-07 11:10:15 by Eclipse SUMO duarouter Version 1.18.0
<configuration xmlns:xsi="http://www.w3.org/2001/XMLSchema-instance" xsi:noNamespaceSchemaLocation="http://sumo.dlr.de/xsd/duarouterConfiguration.xsd">

    <input>
        <net-file value="scenario/mobility/muncgin_demo/muncgin.net.xml"/>
        <route-files value="scenario/mobility/muncgin_demo/vehicles.trips.xml"/>
    </input>

    <output>
        <output-file value="scenario/mobility/muncgin_demo/vehicles.trips.xml.tmp"/>
        <alternatives-output value="NUL"/>
        <write-trips value="true"/>
    </output>

    <time>
        <begin value="0.0"/>
        <end value="20.0"/>
    </time>

    <report>
        <no-warnings value="true"/>
        <ignore-errors value="true"/>
        <no-step-log value="true"/>
    </report>

</configuration>
-->

<routes xmlns:xsi="http://www.w3.org/2001/XMLSchema-instance" xsi:noNamespaceSchemaLocation="http://sumo.dlr.de/xsd/routes_file.xsd">
    <vType id="ue_passenger" vClass="passenger"/>
    <trip id="ue0" type="ue_passenger" depart="0.00" from="30805091#0" to="-137269175#5"/>
    <trip id="ue1" type="ue_passenger" depart="1.00" from="-4645415#3" to="-3926353#3"/>
    <trip id="ue2" type="ue_passenger" depart="2.00" from="365018753#1" to="30923288#0"/>
    <trip id="ue5" type="ue_passenger" depart="5.00" from="-3926353#2" to="1485006481#0"/>
    <trip id="ue6" type="ue_passenger" depart="6.00" from="-1389356645" to="-38332822"/>
    <trip id="ue7" type="ue_passenger" depart="7.00" from="30923286#0" to="163316371#4"/>
    <trip id="ue8" type="ue_passenger" depart="8.00" from="-3926353#2" to="24061812"/>
    <trip id="ue9" type="ue_passenger" depart="9.00" from="3926026#0" to="-1102911480#2"/>
    <trip id="ue11" type="ue_passenger" depart="11.00" from="121542794" to="-365018750#2"/>
    <trip id="ue13" type="ue_passenger" depart="13.00" from="-23462127#1" to="-25693733#6"/>
    <trip id="ue14" type="ue_passenger" depart="14.00" from="4239280#0" to="25693733#0"/>
    <trip id="ue15" type="ue_passenger" depart="15.00" from="3926025#2" to="356582887"/>
    <trip id="ue16" type="ue_passenger" depart="16.00" from="216110865" to="666490436#0"/>
    <trip id="ue17" type="ue_passenger" depart="17.00" from="1285234244" to="163628891"/>
    <trip id="ue19" type="ue_passenger" depart="19.00" from="4564466#2" to="23462077#0"/>
</routes>
